29                                     
                                       
C    -0.193605   -1.03899    -1.269844 
N    -1.0447     -0.086563   -0.818898 
O    -0.474551   -2.220413   -1.250508 
C    1.161595    -0.534356   -1.744919 
H    1.551397    -1.290043   -2.423174 
H    1.056304    0.406371    -2.283034 
C    2.089981    -0.380795   -0.567284 
C    2.277607    0.82583     0.102277  
C    2.772352    -1.496078   -0.083779 
C    3.122884    0.930582    1.197193  
Cl   1.447219    2.26513     -0.418759 
C    3.615134    -1.410969   1.011518  
H    2.622377    -2.444994   -0.584303 
C    3.793822    -0.192436   1.651721  
H    3.245027    1.888788    1.68288   
H    4.133427    -2.292989   1.363006  
H    4.453695    -0.112026   2.505208  
H    -0.834102   0.895975    -0.927792 
C    -2.351368   -0.440927   -0.346504 
C    -2.443627   -1.263043   0.933649  
H    -2.916771   -0.948224   -1.138903 
C    -3.821615   -0.84127    1.436393  
H    -1.663178   -0.943169   1.626101  
H    -2.352112   -2.331045   0.760406  
H    -4.621589   -1.427026   0.980024  
H    -3.928471   -0.86873    2.5174    
C    -3.117975   0.817984    0.031451  
O    -3.973803   0.529195    1.022447  
O    -2.985014   1.905299    -0.439169 
