31                                     
                                       
C    -0.430388   -0.898011   -1.381097 
N    -1.185694   0.042696    -0.775414 
O    -0.824819   -2.031926   -1.574385 
C    0.982083    -0.468172   -1.764539 
H    1.312504    -1.17557    -2.522446 
H    0.981842    0.532972    -2.183794 
C    1.890357    -0.590125   -0.564523 
C    2.421455    0.464472    0.173296  
C    2.255483    -1.874485   -0.15722  
C    3.287497    0.27725     1.241272  
N    2.096487    1.866663    -0.144408 
C    3.09178     -2.086035   0.924631  
H    1.85711     -2.71496    -0.712591 
C    3.614959    -1.007627   1.62784   
H    3.682245    1.142985    1.753109  
H    3.344481    -3.09713    1.21558   
H    4.27545     -1.166318   2.469033  
H    -0.849777   0.993293    -0.685571 
C    -2.53357    -0.255856   -0.384971 
C    -2.737704   -1.288387   0.717778  
H    -3.123658   -0.549986   -1.262396 
C    -4.082056   -0.834317   1.27959   
H    -1.949474   -1.180657   1.464968  
H    -2.743282   -2.309418   0.348347  
H    -4.921098   -1.244729   0.714657  
H    -4.219505   -1.052769   2.335185  
C    -3.189212   0.980696    0.213154  
O    -4.092676   0.59624     1.129074  
O    -2.949412   2.117629    -0.048412 
O    2.95384     2.692775    0.048061  
O    0.982257    2.117826    -0.560164 
