29                                     
                                       
C    -0.688588   1.860851    0.205961  
N    -0.950767   0.531922    0.167254  
O    -1.575448   2.687799    0.278879  
C    0.775611    2.283956    0.142528  
H    0.847633    2.969678    -0.702874 
H    0.94477     2.883094    1.03896   
C    1.789339    1.180121    0.031393  
C    2.274777    0.543037    1.171381  
C    2.231582    0.741447    -1.214345 
C    3.178575    -0.504915   1.079729  
H    1.93989     0.870678    2.148685  
C    3.137155    -0.302488   -1.328702 
H    1.863108    1.2256      -2.11095  
C    3.594324    -0.907523   -0.174257 
H    3.562342    -1.006761   1.957109  
H    3.491224    -0.649286   -2.289708 
F    4.471535    -1.914671   -0.274415 
H    -0.206871   -0.148288   0.242512  
C    -2.297093   0.065074    0.330436  
C    -3.282636   0.333042    -0.80046  
H    -2.718885   0.449955    1.267971  
C    -4.26363    -0.817783   -0.592845 
H    -2.769998   0.235871    -1.758806 
H    -3.743196   1.314424    -0.738241 
H    -5.02371    -0.578848   0.153105  
H    -4.748767   -1.159043   -1.503256 
C    -2.310234   -1.453997   0.40811   
O    -3.467989   -1.908722   -0.09271  
O    -1.439198   -2.157005   0.81894   
