29                                     
                                       
C    -0.78663    1.326097    1.318725  
N    -1.49183    0.280984    0.824837  
O    -1.244063   2.450391    1.369047  
C    0.639684    1.013937    1.748039  
H    0.881373    1.715093    2.544429  
H    0.719959    0.000314    2.135843  
C    1.575931    1.231527    0.584792  
C    2.058519    0.215528    -0.238162 
C    1.956763    2.54068     0.283119  
C    2.903496    0.489131    -1.307355 
I    1.542658    -1.79879    0.067077  
C    2.792151    2.827423    -0.781772 
H    1.569426    3.340093    0.903176  
C    3.27174     1.796789    -1.577634 
H    3.269834    -0.318525   -1.925468 
H    3.070253    3.852286    -0.988423 
H    3.931137    2.004777    -2.409898 
H    -1.135424   -0.66359    0.8774    
C    -2.843506   0.457299    0.379103  
C    -3.075434   1.332591    -0.846732 
H    -3.471434   0.819904    1.203173  
C    -4.375458   0.732507    -1.375686 
H    -2.26107    1.182153    -1.557417 
H    -3.150037   2.388977    -0.607122 
H    -5.252916   1.157381    -0.884898 
H    -4.494505   0.808893    -2.453046 
C    -3.408654   -0.880013   -0.076793 
O    -4.308948   -0.667761   -1.047185 
O    -3.102772   -1.960101   0.325068  
