31                                     
                                       
C    -0.721804   1.866133    0.222475  
N    -0.968165   0.533871    0.185     
O    -1.622491   2.681837    0.263314  
C    0.73907     2.302411    0.210243  
H    0.822058    3.028517    -0.599797 
H    0.88135     2.861926    1.137272  
C    1.765123    1.214115    0.072583  
C    2.229604    0.516677    1.185208  
C    2.250756    0.83502     -1.176041 
C    3.139187    -0.519316   1.061758  
H    1.87        0.78819     2.171679  
C    3.163661    -0.195727   -1.314271 
H    1.908361    1.359813    -2.060851 
C    3.622967    -0.890952   -0.193865 
H    3.480181    -1.049102   1.943064  
H    3.525462    -0.471688   -2.297607 
N    4.496896    -1.961294   -0.331237 
H    -0.215098   -0.134559   0.274971  
C    -2.314099   0.056771    0.308183  
C    -3.256863   0.287537    -0.866997 
H    -2.775415   0.465624    1.216612  
C    -4.240499   -0.861522   -0.665227 
H    -2.706863   0.166542    -1.801605 
H    -3.722607   1.268375    -0.849217 
H    -5.029954   -0.60508    0.043644  
H    -4.688968   -1.230788   -1.583595 
C    -2.324766   -1.459127   0.43022   
O    -3.461052   -1.933695   -0.103976 
O    -1.472174   -2.148355   0.898373  
H    5.055493    -1.964851   -1.169168 
H    5.02659     -2.201362   0.490941  
