29                                     
                                       
C    1.540498    1.729226    -0.649105 
N    1.770945    0.492769    -0.144658 
O    2.348236    2.29652     -1.356411 
C    0.23212     2.408242    -0.254583 
H    0.51589     3.241628    0.391433  
H    -0.161352   2.845188    -1.172297 
C    -0.79271    1.539956    0.419746  
C    -1.742967   0.863578    -0.340672 
C    -0.784152   1.365072    1.801205  
C    -2.661812   0.035066    0.282562  
H    -1.767861   0.985579    -1.416079 
C    -1.706097   0.527854    2.412097  
H    -0.04837    1.888971    2.399697  
C    -2.655134   -0.145085   1.656447  
Br   -3.956499   -0.863969   -0.766951 
H    -1.691224   0.398054    3.486218  
H    -3.378905   -0.797738   2.123652  
H    1.034786    -0.030735   0.309719  
C    2.947332    -0.231599   -0.532956 
C    4.295679    0.306652    -0.070824 
H    2.970883    -0.364712   -1.622498 
C    5.116097    -0.980404   -0.048901 
H    4.196246    0.718855    0.934644  
H    4.698338    1.068471    -0.731271 
H    5.526125    -1.221727   -1.031178 
H    5.916974    -0.984932   0.685423  
C    2.926371    -1.614716   0.100745  
O    4.186734    -2.016593   0.319234  
O    1.962274    -2.25248    0.39266   
