31                                     
                                       
C    1.166961    1.786418    -0.46433  
N    1.406128    0.497381    -0.12158  
O    2.004566    2.475521    -1.008175 
C    -0.201368   2.360905    -0.104209 
H    -0.007012   3.151628    0.622771  
H    -0.562348   2.851039    -1.008503 
C    -1.215587   1.387349    0.425785  
C    -2.091762   0.742493    -0.439944 
C    -1.270978   1.080684    1.785026  
C    -2.987783   -0.177172   0.072458  
H    -2.088056   0.946582    -1.501975 
C    -2.176021   0.150784    2.276615  
H    -0.591193   1.57942     2.466117  
C    -3.051925   -0.492961   1.416276  
N    -3.920053   -0.84699    -0.858895 
H    -2.202056   -0.072555   3.334398  
H    -3.770456   -1.220155   1.76371   
H    0.658858    -0.11017    0.18558   
C    2.634999    -0.135039   -0.510191 
C    3.925195    0.365708    0.12638   
H    2.744539    -0.117712   -1.602356 
C    4.783513    -0.894066   0.040027  
H    3.736553    0.633976    1.16716   
H    4.352015    1.219346    -0.391118 
H    5.273488    -0.990739   -0.930322 
H    5.526546    -0.980932   0.827988  
C    2.611515    -1.591264   -0.069329 
O    3.863042    -1.991244   0.192038  
O    1.6471      -2.28061    0.060424  
O    -4.699007   -1.642907   -0.389612 
O    -3.844946   -0.553945   -2.029364 
